-- This reservoir simulation deck is made available under the Open Database
-- License: http://opendatacommons.org/licenses/odbl/1.0/. Any rights in
-- individual contents of the database are licensed under the Database Contents
-- License: http://opendatacommons.org/licenses/dbcl/1.0/

-- Copyright (C) 2015 SINTEF ICT, Applied Mathematics
-- Copyright (C) 2015 Statoil

RUNSPEC

DIMENS
30 20 6/

GRIDOPTS
 'YES' 0 /

OIL

WATER

GAS

DISGAS

VAPOIL

POLYMER


METRIC


START
 06  'NOV' 1997 /

EQLDIMS
1 /
-- 5  100  20 /

WELLDIMS
    130  36  15  84 /


TABDIMS
--ntsfun ntpvt nssfun nppvt ntfip nrpvt ntendp
   1     1     33     60   16    60 /

REGDIMS
1   1   1   0 /

PIMTDIMS
1  51 /

NSTACK
 30 /

UNIFIN
UNIFOUT

OPTIONS
77* 1 /

---------------------------------------------------------
--
--	Input of grid geometry
--
---------------------------------------------------------
GRID

NEWTRAN

GRIDFILE
  2  /

GRIDUNIT
METRES  /

INIT

NOECHO

--------------------------------------------------------
--
--  	Grid and faults
--
--------------------------------------------------------
INCLUDE
  '../common/GRDECL.INC' /

INCLUDE
  '../common/ACTNUM.INC' /

--------------------------------------------------------
--
--  	Input of grid parametres
--
--------------------------------------------------------
INCLUDE
   '../common/PORO.INC' /

INCLUDE
   '../common/PERMX.INC' /

INCLUDE
   '../common/PERMY.INC' /

INCLUDE
   '../common/PERMZ.INC' /

--------------------------------------------------------------------------------

--------------------------------------------------------------------------------

PROPS

INCLUDE
   '../common/PROPS.INC' /

NOECHO


INCLUDE
 'POLY.inc' /

---------------------------------------------------------------------------------
SOLUTION

EQUIL
-- Datum    P     woc     Pc   goc    Pc  Rsvd  Rvvd
   2010   269.46  2120    0.0 2010.0  0.0   1*   0   0/

RPTSOL
FIP=3  SWAT SGAS PRESS SOIL /

SUMMARY

ALL
--------------------------------------------------------------------------------


SCHEDULE

NOECHO

WELSPECS
   'INJE01' 'I'    13  10   1* 'WATER'     /
   'PROD01' 'P'    24  16   1* 'OIL'   7* /
   'PROD02' 'P'     5   7   1* 'OIL'   7*  /
/

COMPDAT
   'INJE01'  13   10  4   6  'OPEN'  1* 181.866 0.5 /
   'PROD01'  24   16  1   2  'OPEN'  1* 218.457 0.5 /
   'PROD02'   5    7  1   2  'OPEN'  1* 218.457 0.5 /
/

WCONINJE
    'INJE01' 'WATER' 'OPEN' 'RATE' 2500.00  1* 290 /
/

WCONPROD
     'PROD01' 'OPEN'  'BHP' 5* 230 /
     'PROD02' 'OPEN'  'BHP' 5* 230 /
/

WPOLYMER
   'INJE01' 0.0 0.0 /
/

TSTEP
5*10
6*10
16*12.5
10*12.5
10*12.5
/

WCONINJE
    'INJE01' 'WATER' 'OPEN' 'RATE' 2500.00  1* 290 /
/

WCONPROD
     'PROD01' 'OPEN'  'BHP' 5* 230 /
     'PROD02' 'OPEN'  'BHP' 5* 230 /
/

WPOLYMER
   'INJE01' 1.0 0.0 /
/

TSTEP
5*5
5*5
10*10
10*15
2*20
3*20
/

WCONINJE
    'INJE01' 'WATER' 'OPEN' 'RATE' 2500.00  1* 290 /
/

WCONPROD
     'PROD01' 'OPEN'  'BHP' 5* 230 /
     'PROD02' 'OPEN'  'BHP' 5* 230 /
/

WPOLYMER
   'INJE01' 0.0 0.0 /
/

TSTEP
30*15
72*15
/

