-- This reservoir simulation deck is made available under the Open Database
-- License: http://opendatacommons.org/licenses/odbl/1.0/. Any rights in
-- individual contents of the database are licensed under the Database Contents
-- License: http://opendatacommons.org/licenses/dbcl/1.0/

-- Copyright (C) 2016 IRIS

-- This simulation is based on the data given in 
-- 'Fifth comparison of Solution Project: Evaluation of Miscible Flood Simulators' 
-- by Killough et at. SPE16000 1987


---------------------------------------------------------------------------
------------------------ SPE5 - CASE 2 ------------------------------------
---------------------------------------------------------------------------

RUNSPEC
-- -------------------------------------------------------------------------

TITLE
   SPE5 - CASE 2

INCLUDE
  'SPE5.BASE' /

WCONPROD
-- Item #:1	2      3     4	   5  9
	'PROD' 'OPEN' 'ORAT' 12000 4* 3000 /
/

WCONINJE
-- Item #:1	 2	 3	 4	5      6  7
	'INJW'	'WATER'	'OPEN'	'RATE'	45000 1* 4500 /
	'INJG'	'GAS'	'OPEN'	'RATE'	20000 1* 4500 /
/

WSOLVENT
'INJG'  1.0/
/

-- Start water injection after 0 years
WELOPEN
 'INJW' 'OPEN' /
 'INJG' 'SHUT' /
/
TSTEP
--Advance the simulater 91.25 days 
30.5 30.5 30.25
/

WELOPEN
 'INJW' 'SHUT' /
 'INJG' 'OPEN' /
/

TSTEP
--Advance the simulater 91.25 days 
30.5 30.5 30.25
/

WELOPEN
 'INJW' 'OPEN' /
 'INJG' 'SHUT' /
/
TSTEP
--Advance the simulater 91.25 days 
30.5 30.5 30.25
/

WELOPEN
 'INJW' 'SHUT' /
 'INJG' 'OPEN' /
/

TSTEP
--Advance the simulater 91.25 days 
30.5 30.5 30.25
/

WELOPEN
 'INJW' 'OPEN' /
 'INJG' 'SHUT' /
/
TSTEP
--Advance the simulater 91.25 days 
30.5 30.5 30.25
/

WELOPEN
 'INJW' 'SHUT' /
 'INJG' 'OPEN' /
/

TSTEP
--Advance the simulater 91.25 days 
30.5 30.5 30.25
/

WELOPEN
 'INJW' 'OPEN' /
 'INJG' 'SHUT' /
/
TSTEP
--Advance the simulater 91.25 days 
30.5 30.5 30.25
/

WELOPEN
 'INJW' 'SHUT' /
 'INJG' 'OPEN' /
/

TSTEP
--Advance the simulater 91.25 days 
30.5 30.5 30.25
/

WELOPEN
 'INJW' 'OPEN' /
 'INJG' 'SHUT' /
/
TSTEP
--Advance the simulater 91.25 days 
30.5 30.5 30.25
/

WELOPEN
 'INJW' 'SHUT' /
 'INJG' 'OPEN' /
/

TSTEP
--Advance the simulater 91.25 days 
30.5 30.5 30.25
/

WELOPEN
 'INJW' 'OPEN' /
 'INJG' 'SHUT' /
/
TSTEP
--Advance the simulater 91.25 days 
30.5 30.5 30.25
/

WELOPEN
 'INJW' 'SHUT' /
 'INJG' 'OPEN' /
/

TSTEP
--Advance the simulater 91.25 days 
30.5 30.5 30.25
/

WELOPEN
 'INJW' 'OPEN' /
 'INJG' 'SHUT' /
/
TSTEP
--Advance the simulater 91.25 days 
30.5 30.5 30.25
/

WELOPEN
 'INJW' 'SHUT' /
 'INJG' 'OPEN' /
/

TSTEP
--Advance the simulater 91.25 days 
30.5 30.5 30.25
/

WELOPEN
 'INJW' 'OPEN' /
 'INJG' 'SHUT' /
/
TSTEP
--Advance the simulater 91.25 days 
30.5 30.5 30.25
/

WELOPEN
 'INJW' 'SHUT' /
 'INJG' 'OPEN' /
/

TSTEP
--Advance the simulater 91.25 days 
30.5 30.5 30.25
/

WELOPEN
 'INJW' 'OPEN' /
 'INJG' 'SHUT' /
/
TSTEP
--Advance the simulater 91.25 days 
30.5 30.5 30.25
/

WELOPEN
 'INJW' 'SHUT' /
 'INJG' 'OPEN' /
/

TSTEP
--Advance the simulater 91.25 days 
30.5 30.5 30.25
/

WELOPEN
 'INJW' 'OPEN' /
 'INJG' 'SHUT' /
/
TSTEP
--Advance the simulater 91.25 days 
30.5 30.5 30.25
/

WELOPEN
 'INJW' 'SHUT' /
 'INJG' 'OPEN' /
/

TSTEP
--Advance the simulater 91.25 days 
30.5 30.5 30.25
/

WELOPEN
 'INJW' 'OPEN' /
 'INJG' 'SHUT' /
/
TSTEP
--Advance the simulater 91.25 days 
30.5 30.5 30.25
/

WELOPEN
 'INJW' 'SHUT' /
 'INJG' 'OPEN' /
/

TSTEP
--Advance the simulater 91.25 days 
30.5 30.5 30.25
/

WELOPEN
 'INJW' 'OPEN' /
 'INJG' 'SHUT' /
/
TSTEP
--Advance the simulater 91.25 days 
30.5 30.5 30.25
/

WELOPEN
 'INJW' 'SHUT' /
 'INJG' 'OPEN' /
/

TSTEP
--Advance the simulater 91.25 days 
30.5 30.5 30.25
/

WELOPEN
 'INJW' 'OPEN' /
 'INJG' 'SHUT' /
/
TSTEP
--Advance the simulater 91.25 days 
30.5 30.5 30.25
/

WELOPEN
 'INJW' 'SHUT' /
 'INJG' 'OPEN' /
/

TSTEP
--Advance the simulater 91.25 days 
30.5 30.5 30.25
/

WELOPEN
 'INJW' 'OPEN' /
 'INJG' 'SHUT' /
/
TSTEP
--Advance the simulater 91.25 days 
30.5 30.5 30.25
/

WELOPEN
 'INJW' 'SHUT' /
 'INJG' 'OPEN' /
/

TSTEP
--Advance the simulater 91.25 days 
30.5 30.5 30.25
/

WELOPEN
 'INJW' 'OPEN' /
 'INJG' 'SHUT' /
/
TSTEP
--Advance the simulater 91.25 days 
30.5 30.5 30.25
/

WELOPEN
 'INJW' 'SHUT' /
 'INJG' 'OPEN' /
/

TSTEP
--Advance the simulater 91.25 days 
30.5 30.5 30.25
/

WELOPEN
 'INJW' 'OPEN' /
 'INJG' 'SHUT' /
/
TSTEP
--Advance the simulater 91.25 days 
30.5 30.5 30.25
/

WELOPEN
 'INJW' 'SHUT' /
 'INJG' 'OPEN' /
/

TSTEP
--Advance the simulater 91.25 days 
30.5 30.5 30.25
/

WELOPEN
 'INJW' 'OPEN' /
 'INJG' 'SHUT' /
/
TSTEP
--Advance the simulater 91.25 days 
30.5 30.5 30.25
/

WELOPEN
 'INJW' 'SHUT' /
 'INJG' 'OPEN' /
/

TSTEP
--Advance the simulater 91.25 days 
30.5 30.5 30.25
/

WELOPEN
 'INJW' 'OPEN' /
 'INJG' 'SHUT' /
/
TSTEP
--Advance the simulater 91.25 days 
30.5 30.5 30.25
/

WELOPEN
 'INJW' 'SHUT' /
 'INJG' 'OPEN' /
/

TSTEP
--Advance the simulater 91.25 days 
30.5 30.5 30.25
/

WELOPEN
 'INJW' 'OPEN' /
 'INJG' 'SHUT' /
/
TSTEP
--Advance the simulater 91.25 days 
30.5 30.5 30.25
/

WELOPEN
 'INJW' 'SHUT' /
 'INJG' 'OPEN' /
/

TSTEP
--Advance the simulater 91.25 days 
30.5 30.5 30.25
/

WELOPEN
 'INJW' 'OPEN' /
 'INJG' 'SHUT' /
/
TSTEP
--Advance the simulater 91.25 days 
30.5 30.5 30.25
/

WELOPEN
 'INJW' 'SHUT' /
 'INJG' 'OPEN' /
/

TSTEP
--Advance the simulater 91.25 days 
30.5 30.5 30.25
/

WELOPEN
 'INJW' 'OPEN' /
 'INJG' 'SHUT' /
/
TSTEP
--Advance the simulater 91.25 days 
30.5 30.5 30.25
/

WELOPEN
 'INJW' 'SHUT' /
 'INJG' 'OPEN' /
/

TSTEP
--Advance the simulater 91.25 days 
30.5 30.5 30.25
/

WELOPEN
 'INJW' 'OPEN' /
 'INJG' 'SHUT' /
/
TSTEP
--Advance the simulater 91.25 days 
30.5 30.5 30.25
/

WELOPEN
 'INJW' 'SHUT' /
 'INJG' 'OPEN' /
/

TSTEP
--Advance the simulater 91.25 days 
30.5 30.5 30.25
/

WELOPEN
 'INJW' 'OPEN' /
 'INJG' 'SHUT' /
/
TSTEP
--Advance the simulater 91.25 days 
30.5 30.5 30.25
/

WELOPEN
 'INJW' 'SHUT' /
 'INJG' 'OPEN' /
/

TSTEP
--Advance the simulater 91.25 days 
30.5 30.5 30.25
/

WELOPEN
 'INJW' 'OPEN' /
 'INJG' 'SHUT' /
/
TSTEP
--Advance the simulater 91.25 days 
30.5 30.5 30.25
/

WELOPEN
 'INJW' 'SHUT' /
 'INJG' 'OPEN' /
/

TSTEP
--Advance the simulater 91.25 days 
30.5 30.5 30.25
/

WELOPEN
 'INJW' 'OPEN' /
 'INJG' 'SHUT' /
/
TSTEP
--Advance the simulater 91.25 days 
30.5 30.5 30.25
/

WELOPEN
 'INJW' 'SHUT' /
 'INJG' 'OPEN' /
/

TSTEP
--Advance the simulater 91.25 days 
30.5 30.5 30.25
/

WELOPEN
 'INJW' 'OPEN' /
 'INJG' 'SHUT' /
/
TSTEP
--Advance the simulater 91.25 days 
30.5 30.5 30.25
/

WELOPEN
 'INJW' 'SHUT' /
 'INJG' 'OPEN' /
/

TSTEP
--Advance the simulater 91.25 days 
30.5 30.5 30.25
/

WELOPEN
 'INJW' 'OPEN' /
 'INJG' 'SHUT' /
/
TSTEP
--Advance the simulater 91.25 days 
30.5 30.5 30.25
/

WELOPEN
 'INJW' 'SHUT' /
 'INJG' 'OPEN' /
/

TSTEP
--Advance the simulater 91.25 days 
30.5 30.5 30.25
/

WELOPEN
 'INJW' 'OPEN' /
 'INJG' 'SHUT' /
/
TSTEP
--Advance the simulater 91.25 days 
30.5 30.5 30.25
/

WELOPEN
 'INJW' 'SHUT' /
 'INJG' 'OPEN' /
/

TSTEP
--Advance the simulater 91.25 days 
30.5 30.5 30.25
/

WELOPEN
 'INJW' 'OPEN' /
 'INJG' 'SHUT' /
/
TSTEP
--Advance the simulater 91.25 days 
30.5 30.5 30.25
/

WELOPEN
 'INJW' 'SHUT' /
 'INJG' 'OPEN' /
/

TSTEP
--Advance the simulater 91.25 days 
30.5 30.5 30.25
/

WELOPEN
 'INJW' 'OPEN' /
 'INJG' 'SHUT' /
/
TSTEP
--Advance the simulater 91.25 days 
30.5 30.5 30.25
/

WELOPEN
 'INJW' 'SHUT' /
 'INJG' 'OPEN' /
/

TSTEP
--Advance the simulater 91.25 days 
30.5 30.5 30.25
/

WELOPEN
 'INJW' 'OPEN' /
 'INJG' 'SHUT' /
/
TSTEP
--Advance the simulater 91.25 days 
30.5 30.5 30.25
/

WELOPEN
 'INJW' 'SHUT' /
 'INJG' 'OPEN' /
/

TSTEP
--Advance the simulater 91.25 days 
30.5 30.5 30.25
/

WELOPEN
 'INJW' 'OPEN' /
 'INJG' 'SHUT' /
/
TSTEP
--Advance the simulater 91.25 days 
30.5 30.5 30.25
/

WELOPEN
 'INJW' 'SHUT' /
 'INJG' 'OPEN' /
/

TSTEP
--Advance the simulater 91.25 days 
30.5 30.5 30.25
/

WELOPEN
 'INJW' 'OPEN' /
 'INJG' 'SHUT' /
/
TSTEP
--Advance the simulater 91.25 days 
30.5 30.5 30.25
/

WELOPEN
 'INJW' 'SHUT' /
 'INJG' 'OPEN' /
/

TSTEP
--Advance the simulater 91.25 days 
30.5 30.5 30.25
/

WELOPEN
 'INJW' 'OPEN' /
 'INJG' 'SHUT' /
/
TSTEP
--Advance the simulater 91.25 days 
30.5 30.5 30.25
/

WELOPEN
 'INJW' 'SHUT' /
 'INJG' 'OPEN' /
/

TSTEP
--Advance the simulater 91.25 days 
30.5 30.5 30.25
/

WELOPEN
 'INJW' 'OPEN' /
 'INJG' 'SHUT' /
/
TSTEP
--Advance the simulater 91.25 days 
30.5 30.5 30.25
/

WELOPEN
 'INJW' 'SHUT' /
 'INJG' 'OPEN' /
/

TSTEP
--Advance the simulater 91.25 days 
30.5 30.5 30.25
/

WELOPEN
 'INJW' 'OPEN' /
 'INJG' 'SHUT' /
/
TSTEP
--Advance the simulater 91.25 days 
30.5 30.5 30.25
/

WELOPEN
 'INJW' 'SHUT' /
 'INJG' 'OPEN' /
/

TSTEP
--Advance the simulater 91.25 days + 4 leap days 
30.5 30.5 34.25
/

-- End simulation after 20 years

END
